
     RDKit          3D

 57 58  0  0  0  0  0  0  0  0999 V2000
   -6.2326    0.5483   -1.0890 C   0  0  0  0  0  0  0  0  0  0  0  0
   -4.7713    0.1179   -1.0559 C   0  0  0  0  0  0  0  0  0  0  0  0
   -3.7779    1.3037   -1.0586 C   0  0  0  0  0  0  0  0  0  0  0  0
   -3.8641    2.1698    0.1974 C   0  0  0  0  0  0  0  0  0  0  0  0
   -3.3898    1.4380    1.4666 C   0  0  0  0  0  0  0  0  0  0  0  0
   -3.2944    3.1189    3.0336 I   0  0  0  0  0  0  0  0  0  0  0  0
   -1.9936    0.7684    1.3343 C   0  0  0  0  0  0  0  0  0  0  0  0
   -1.7812   -0.2926    2.2956 O   0  0  0  0  0  0  0  0  0  0  0  0
   -1.6223    0.0946    3.6515 C   0  0  0  0  0  0  0  0  0  0  0  0
   -1.8063    0.0427   -0.0318 C   0  0  0  0  0  0  0  0  0  0  0  0
   -0.3477   -0.4549   -0.2620 C   0  0  0  0  0  0  0  0  0  0  0  0
    0.1005   -1.3143    0.7741 O   0  0  0  0  0  0  0  0  0  0  0  0
    0.6208    0.6310   -0.3473 N   0  0  0  0  0  0  0  0  0  0  0  0
    1.8872    0.2405   -0.9822 C   0  0  0  0  0  0  0  0  0  0  0  0
    2.7360   -0.8562   -0.2747 C   0  0  0  0  0  0  0  0  0  0  0  0
    2.4835   -2.2870   -0.7719 C   0  0  0  0  0  0  0  0  0  0  0  0
    3.6924   -2.6475   -1.6150 C   0  0  0  0  0  0  0  0  0  0  0  0
    4.8280   -1.9627   -0.8936 C   0  0  0  0  0  0  0  0  0  0  0  0
    4.2380   -0.6120   -0.5653 N   0  0  0  0  0  0  0  0  0  0  0  0
    4.9341    0.1424    0.5370 C   0  0  0  0  0  0  0  0  0  0  0  0
    6.3448    0.5095    0.1204 C   0  0  0  0  0  0  0  0  0  0  0  0
   -2.3092    0.8683   -1.2264 C   0  0  0  0  0  0  0  0  0  0  0  0
   -2.1917    0.0999   -2.4224 O   0  0  0  0  0  0  0  0  0  0  0  0
   -6.8793   -0.3304   -1.1639 H   0  0  0  0  0  0  0  0  0  0  0  0
   -6.5179    1.0893   -0.1820 H   0  0  0  0  0  0  0  0  0  0  0  0
   -6.4313    1.1881   -1.9553 H   0  0  0  0  0  0  0  0  0  0  0  0
   -4.6205   -0.5191   -0.1786 H   0  0  0  0  0  0  0  0  0  0  0  0
   -4.5910   -0.5124   -1.9351 H   0  0  0  0  0  0  0  0  0  0  0  0
   -4.0352    1.9267   -1.9275 H   0  0  0  0  0  0  0  0  0  0  0  0
   -4.8840    2.5482    0.3376 H   0  0  0  0  0  0  0  0  0  0  0  0
   -3.2388    3.0601    0.0281 H   0  0  0  0  0  0  0  0  0  0  0  0
   -4.1405    0.7314    1.8361 H   0  0  0  0  0  0  0  0  0  0  0  0
   -1.2035    1.5201    1.4527 H   0  0  0  0  0  0  0  0  0  0  0  0
   -0.9459    0.9514    3.7498 H   0  0  0  0  0  0  0  0  0  0  0  0
   -1.1746   -0.7512    4.1850 H   0  0  0  0  0  0  0  0  0  0  0  0
   -2.5954    0.2851    4.1051 H   0  0  0  0  0  0  0  0  0  0  0  0
   -2.3978   -0.8838    0.0162 H   0  0  0  0  0  0  0  0  0  0  0  0
   -0.3379   -1.0397   -1.1887 H   0  0  0  0  0  0  0  0  0  0  0  0
   -0.6109   -1.3272    1.4535 H   0  0  0  0  0  0  0  0  0  0  0  0
    0.8037    0.9256    0.6127 H   0  0  0  0  0  0  0  0  0  0  0  0
    2.4776    1.1633   -1.0296 H   0  0  0  0  0  0  0  0  0  0  0  0
    1.7053   -0.0402   -2.0255 H   0  0  0  0  0  0  0  0  0  0  0  0
    2.6214   -0.8012    0.8143 H   0  0  0  0  0  0  0  0  0  0  0  0
    2.4240   -2.9649    0.0878 H   0  0  0  0  0  0  0  0  0  0  0  0
    1.5567   -2.3987   -1.3451 H   0  0  0  0  0  0  0  0  0  0  0  0
    3.5803   -2.2341   -2.6234 H   0  0  0  0  0  0  0  0  0  0  0  0
    3.8382   -3.7275   -1.7001 H   0  0  0  0  0  0  0  0  0  0  0  0
    5.0855   -2.4620    0.0468 H   0  0  0  0  0  0  0  0  0  0  0  0
    5.7114   -1.8192   -1.5206 H   0  0  0  0  0  0  0  0  0  0  0  0
    4.3016   -0.0497   -1.4249 H   0  0  0  0  0  0  0  0  0  0  0  0
    4.9100   -0.4804    1.4343 H   0  0  0  0  0  0  0  0  0  0  0  0
    4.3526    1.0520    0.7175 H   0  0  0  0  0  0  0  0  0  0  0  0
    6.8199    1.1077    0.9041 H   0  0  0  0  0  0  0  0  0  0  0  0
    6.9680   -0.3777   -0.0513 H   0  0  0  0  0  0  0  0  0  0  0  0
    6.3389    1.1052   -0.8019 H   0  0  0  0  0  0  0  0  0  0  0  0
   -1.6816    1.7621   -1.3452 H   0  0  0  0  0  0  0  0  0  0  0  0
   -1.6925    0.6363   -3.0725 H   0  0  0  0  0  0  0  0  0  0  0  0
  1  2  1  0
  2  3  1  0
  3  4  1  0
  4  5  1  0
  5  6  1  0
  5  7  1  0
  7  8  1  0
  8  9  1  0
  7 10  1  0
 10 11  1  0
 11 12  1  0
 11 13  1  0
 13 14  1  0
 14 15  1  0
 15 16  1  0
 16 17  1  0
 17 18  1  0
 18 19  1  0
 19 20  1  0
 20 21  1  0
 10 22  1  0
 22 23  1  0
 22  3  1  0
 19 15  1  0
  1 24  1  0
  1 25  1  0
  1 26  1  0
  2 27  1  0
  2 28  1  0
  3 29  1  0
  4 30  1  0
  4 31  1  0
  5 32  1  0
  7 33  1  0
  9 34  1  0
  9 35  1  0
  9 36  1  0
 10 37  1  0
 11 38  1  0
 12 39  1  0
 13 40  1  0
 14 41  1  0
 14 42  1  0
 15 43  1  0
 16 44  1  0
 16 45  1  0
 17 46  1  0
 17 47  1  0
 18 48  1  0
 18 49  1  0
 19 50  1  0
 20 51  1  0
 20 52  1  0
 21 53  1  0
 21 54  1  0
 21 55  1  0
 22 56  1  0
 23 57  1  0
M  CHG  1  19   1
M  END
$$$$
